Circuit: * D:\Theremin\SIMULAÇÕES\OSCILADOR DE PITCH.asc

Warning: Multiple definitions of model "bc547b" Type: BJT
Direct Newton iteration for .op point succeeded.

Date: Tue Aug 27 18:10:07 2019
Total elapsed time: 10.981 seconds.

tnom = 27
temp = 27
method = modified trap
totiter = 37892
traniter = 37886
tranpoints = 13165
accept = 9354
rejected = 3811
matrix size = 12
fillins = 6
solver = Normal
Matrix Compiler1: 1.07 KB object code size  0.8/0.7/[0.3]
Matrix Compiler2: 1.03 KB object code size  0.4/0.8/[0.3]

